@<TRIPOS>MOLECULE
RDKit          3D
    18    19     1     0     0
SMALL
NO_CHARGES
****
Generated from the CSD

@<TRIPOS>ATOM
     1 C1      -1.3132   1.3232   1.6152   C.3       1 RES1   0.0000
     2 C2      -1.1209  -0.0227   0.8879   C.3       1 RES1   0.0000
     3 O3       0.0000   0.0000   0.0000   O.3       1 RES1   0.0000
     4 C4      -1.5440   2.3929   0.5320   C.3       1 RES1   0.0000
     5 C5      -0.3527   2.3659  -0.4536   C.3       1 RES1   0.0000
     6 C6       0.6440   1.2724   0.0038   C.3       1 RES1   0.0000
     7 O7       1.1222   1.5721   1.3135   O.3       1 RES1   0.0000
     8 C8       0.0537   1.6227   2.2628   C.3       1 RES1   0.0000
     9 H9      -2.1384   1.2909   2.3589   H         1 RES1   0.0000
    10 H10     -2.0365  -0.2741   0.3103   H         1 RES1   0.0000
    11 H11     -0.9713  -0.8322   1.6348   H         1 RES1   0.0000
    12 H12     -1.6313   3.3970   1.0022   H         1 RES1   0.0000
    13 H13     -2.4944   2.1878  -0.0079   H         1 RES1   0.0000
    14 H14     -0.7101   2.1391  -1.4814   H         1 RES1   0.0000
    15 H15      0.1570   3.3538  -0.4667   H         1 RES1   0.0000
    16 H16      1.5043   1.2438  -0.6971   H         1 RES1   0.0000
    17 H17      0.0354   2.6283   2.7353   H         1 RES1   0.0000
    18 H18      0.2542   0.8847   3.0691   H         1 RES1   0.0000
@<TRIPOS>BOND
     1     1     2    1
     2     2     3    1
     3     1     4    1
     4     4     5    1
     5     5     6    1
     6     6     7    1
     7     7     8    1
     8     8     1    1
     9     6     3    1
    10     1     9    1
    11     2    10    1
    12     2    11    1
    13     4    12    1
    14     4    13    1
    15     5    14    1
    16     5    15    1
    17     6    16    1
    18     8    17    1
    19     8    18    1
@<TRIPOS>SUBSTRUCTURE
     1 RES1        1 GROUP             0 ****  ****    0  
