@<TRIPOS>MOLECULE
RDKit          3D
    20    21     1     0     0
SMALL
NO_CHARGES
****
Generated from the CSD

@<TRIPOS>ATOM
     1 C1       0.9386   1.0536   2.0615   C.3       1 RES1   0.0000
     2 C2       0.6776   1.2025   0.5460   C.3       1 RES1   0.0000
     3 N3       0.0000   0.0000   0.0000   N.3       1 RES1   0.0000
     4 C4       1.8006  -0.2094   2.2693   C.3       1 RES1   0.0000
     5 C5       1.0706  -1.4398   1.6764   C.3       1 RES1   0.0000
     6 C6      -0.2759  -0.9905   1.0611   C.3       1 RES1   0.0000
     7 N7      -1.1149  -0.3629   2.1061   N.3       1 RES1   0.0000
     8 C8      -0.4314   0.7987   2.7259   C.3       1 RES1   0.0000
     9 H9       1.4336   1.9562   2.4808   H         1 RES1   0.0000
    10 H10      0.0625   2.1125   0.3619   H         1 RES1   0.0000
    11 H11      1.6421   1.3452   0.0133   H         1 RES1   0.0000
    12 H12     -0.9141   0.2883  -0.4217   H         1 RES1   0.0000
    13 H13      1.9873  -0.3637   3.3547   H         1 RES1   0.0000
    14 H14      2.7879  -0.0768   1.7748   H         1 RES1   0.0000
    15 H15      1.6989  -1.9125   0.8902   H         1 RES1   0.0000
    16 H16      0.8877  -2.1954   2.4709   H         1 RES1   0.0000
    17 H17     -0.8048  -1.8672   0.6273   H         1 RES1   0.0000
    18 H18     -1.3192  -1.0760   2.8455   H         1 RES1   0.0000
    19 H19     -1.0744   1.6973   2.6087   H         1 RES1   0.0000
    20 H20     -0.2934   0.6326   3.8183   H         1 RES1   0.0000
@<TRIPOS>BOND
     1     1     2    1
     2     2     3    1
     3     1     4    1
     4     4     5    1
     5     5     6    1
     6     6     7    1
     7     7     8    1
     8     8     1    1
     9     6     3    1
    10     1     9    1
    11     2    10    1
    12     2    11    1
    13     3    12    1
    14     4    13    1
    15     4    14    1
    16     5    15    1
    17     5    16    1
    18     6    17    1
    19     7    18    1
    20     8    19    1
    21     8    20    1
@<TRIPOS>SUBSTRUCTURE
     1 RES1        1 GROUP             0 ****  ****    0  
