@<TRIPOS>MOLECULE
RDKit          3D
    17    17     1     0     0
SMALL
NO_CHARGES
****
Generated from the CSD

@<TRIPOS>ATOM
     1 N1       0.0000   0.0000   0.0000   N.pl3     1 RES1   0.0000
     2 C2      -1.1173   0.8769  -0.1657   C.2       1 RES1   0.0000
     3 C3      -1.0859   1.9400  -1.2016   C.2       1 RES1   0.0000
     4 C4       0.1156   2.6130  -1.4898   C.2       1 RES1   0.0000
     5 C5       0.1506   3.6125  -2.4671   C.2       1 RES1   0.0000
     6 C6      -1.0097   3.9487  -3.1679   C.2       1 RES1   0.0000
     7 C7      -2.2077   3.2856  -2.8931   C.2       1 RES1   0.0000
     8 C8      -2.2487   2.2860  -1.9160   C.2       1 RES1   0.0000
     9 N9      -2.1476   0.7307   0.6087   N.2       1 RES1   0.0000
    10 H10      0.8100   0.0249  -0.6580   H         1 RES1   0.0000
    11 H11     -0.0033  -0.7210   0.7557   H         1 RES1   0.0000
    12 H12      1.0234   2.3810  -0.9473   H         1 RES1   0.0000
    13 H13      1.0780   4.1291  -2.6789   H         1 RES1   0.0000
    14 H14     -0.9803   4.7223  -3.9244   H         1 RES1   0.0000
    15 H15     -3.1051   3.5430  -3.4409   H         1 RES1   0.0000
    16 H16     -3.1839   1.7714  -1.7357   H         1 RES1   0.0000
    17 H17     -2.9884   1.3478   0.5574   H         1 RES1   0.0000
@<TRIPOS>BOND
     1     1     2    1
     2     2     3    1
     3     3     4    2
     4     4     5    1
     5     5     6    2
     6     6     7    1
     7     7     8    2
     8     2     9    2
     9     8     3    1
    10     1    10    1
    11     1    11    1
    12     4    12    1
    13     5    13    1
    14     6    14    1
    15     7    15    1
    16     8    16    1
    17     9    17    1
@<TRIPOS>SUBSTRUCTURE
     1 RES1        1 GROUP             0 ****  ****    0  
