@<TRIPOS>MOLECULE
RDKit          3D
     9     8     1     0     0
SMALL
NO_CHARGES
****
Generated from the CSD

@<TRIPOS>ATOM
     1 C1      -0.7987   1.1389  -0.2279   C.3       1 RES1   0.0000
     2 O2       0.0000   0.0000   0.0000   O.3       1 RES1   0.0000
     3 C3       1.3520   0.3303  -0.2238   C.3       1 RES1   0.0000
     4 H4      -1.8595   0.8683  -0.0492   H         1 RES1   0.0000
     5 H5      -0.5388   1.9613   0.4756   H         1 RES1   0.0000
     6 H6      -0.7137   1.4871  -1.2816   H         1 RES1   0.0000
     7 H7       1.5210   0.6469  -1.2773   H         1 RES1   0.0000
     8 H8       1.9710  -0.5720  -0.0418   H         1 RES1   0.0000
     9 H9       1.6959   1.1211   0.4799   H         1 RES1   0.0000
@<TRIPOS>BOND
     1     1     2    1
     2     2     3    1
     3     1     4    1
     4     1     5    1
     5     1     6    1
     6     3     7    1
     7     3     8    1
     8     3     9    1
@<TRIPOS>SUBSTRUCTURE
     1 RES1        1 GROUP             0 ****  ****    0  
