@<TRIPOS>MOLECULE
RDKit          3D
    14    14     1     0     0
SMALL
USER_CHARGES
****
Generated from the CSD

@<TRIPOS>ATOM
     1 N1       0.0000   0.0000   0.0000   N.pl3     1 RES1   1.0000
     2 C2      -0.0641  -1.0121   1.0081   C.2       1 RES1   0.0000
     3 C3      -1.2989  -1.3745   1.5679   C.2       1 RES1   0.0000
     4 C4      -1.3600  -2.3647   2.5539   C.2       1 RES1   0.0000
     5 C5      -0.1900  -2.9969   2.9851   C.2       1 RES1   0.0000
     6 C6       1.0427  -2.6396   2.4308   C.2       1 RES1   0.0000
     7 C7       1.1072  -1.6498   1.4446   C.2       1 RES1   0.0000
     8 H8      -0.8663   0.4802  -0.3313   H         1 RES1   0.0000
     9 H9       0.9144   0.2764  -0.4224   H         1 RES1   0.0000
    10 H10     -2.2107  -0.8908   1.2406   H         1 RES1   0.0000
    11 H11     -2.3139  -2.6418   2.9836   H         1 RES1   0.0000
    12 H12     -0.2386  -3.7629   3.7482   H         1 RES1   0.0000
    13 H13      1.9481  -3.1295   2.7652   H         1 RES1   0.0000
    14 H14      2.0667  -1.3803   1.0215   H         1 RES1   0.0000
@<TRIPOS>BOND
     1     1     2    1
     2     2     3    2
     3     3     4    1
     4     4     5    2
     5     5     6    1
     6     6     7    2
     7     7     2    1
     8     1     8    1
     9     1     9    1
    10     3    10    1
    11     4    11    1
    12     5    12    1
    13     6    13    1
    14     7    14    1
@<TRIPOS>SUBSTRUCTURE
     1 RES1        1 GROUP             0 ****  ****    0  
