@<TRIPOS>MOLECULE
RDKit          3D
     8     8     1     0     0
SMALL
USER_CHARGES
****
Generated from the CSD

@<TRIPOS>ATOM
     1 C1       1.3297  -0.3689  -0.5199   C.3       1 RES1   0.0000
     2 N2       0.0000   0.0000   0.0000   N.3       1 RES1   1.0000
     3 C3       0.8097   0.9703  -0.7598   C.3       1 RES1   0.0000
     4 H4       1.2580  -1.0706  -1.3772   H         1 RES1   0.0000
     5 H5       2.1024  -0.4546   0.2758   H         1 RES1   0.0000
     6 H6       0.1005   0.2213   1.0179   H         1 RES1   0.0000
     7 H7       0.3964   1.1485  -1.7746   H         1 RES1   0.0000
     8 H8       1.2355   1.7779  -0.1240   H         1 RES1   0.0000
@<TRIPOS>BOND
     1     1     2    1
     2     2     3    1
     3     3     1    1
     4     1     4    1
     5     1     5    1
     6     2     6    1
     7     3     7    1
     8     3     8    1
@<TRIPOS>SUBSTRUCTURE
     1 RES1        1 GROUP             0 ****  ****    0  
