@<TRIPOS>MOLECULE
RDKit          3D
    16    17     1     0     0
SMALL
NO_CHARGES
****
Generated from the CSD

@<TRIPOS>ATOM
     1 C1       0.0000   0.0000   0.0000   C.3       1 RES1   0.0000
     2 C2      -1.4839   0.1124  -0.3728   C.3       1 RES1   0.0000
     3 C3      -1.3581   1.1969  -1.4683   C.3       1 RES1   0.0000
     4 C4       0.1619   1.3962  -1.4102   C.3       1 RES1   0.0000
     5 C5       0.3910   1.4685   0.0934   C.3       1 RES1   0.0000
     6 C6       0.6459  -0.0471  -1.3780   C.3       1 RES1   0.0000
     7 H7       0.3330  -0.7087   0.7874   H         1 RES1   0.0000
     8 H8      -2.0996   0.4572   0.4873   H         1 RES1   0.0000
     9 H9      -1.8805  -0.8453  -0.7771   H         1 RES1   0.0000
    10 H10     -1.6869   0.8248  -2.4638   H         1 RES1   0.0000
    11 H11     -1.9058   2.1273  -1.1994   H         1 RES1   0.0000
    12 H12      0.6619   2.1288  -2.0783   H         1 RES1   0.0000
    13 H13      1.4617   1.6201   0.3666   H         1 RES1   0.0000
    14 H14     -0.2956   2.1323   0.6717   H         1 RES1   0.0000
    15 H15      0.1881  -0.7440  -2.1205   H         1 RES1   0.0000
    16 H16      1.7569  -0.1358  -1.3382   H         1 RES1   0.0000
@<TRIPOS>BOND
     1     1     2    1
     2     2     3    1
     3     3     4    1
     4     4     5    1
     5     4     6    1
     6     6     1    1
     7     5     1    1
     8     1     7    1
     9     2     8    1
    10     2     9    1
    11     3    10    1
    12     3    11    1
    13     4    12    1
    14     5    13    1
    15     5    14    1
    16     6    15    1
    17     6    16    1
@<TRIPOS>SUBSTRUCTURE
     1 RES1        1 GROUP             0 ****  ****    0  
