@<TRIPOS>MOLECULE
RDKit          3D
    10     9     1     0     0
SMALL
NO_CHARGES
****
Generated from the CSD

@<TRIPOS>ATOM
     1 C1      -1.4139  -0.1456   0.3487   C.3       1 RES1   0.0000
     2 N2       0.0000   0.0000   0.0000   N.3       1 RES1   0.0000
     3 C3       0.7463  -1.1921   0.4047   C.3       1 RES1   0.0000
     4 H4      -1.8608  -1.0278  -0.1612   H         1 RES1   0.0000
     5 H5      -1.5320  -0.2492   1.4490   H         1 RES1   0.0000
     6 H6      -1.9663   0.7628   0.0283   H         1 RES1   0.0000
     7 H7       0.0644   0.0774  -1.0420   H         1 RES1   0.0000
     8 H8       0.3523  -2.0999  -0.1040   H         1 RES1   0.0000
     9 H9       1.8141  -1.0687   0.1260   H         1 RES1   0.0000
    10 H10      0.6921  -1.3267   1.5066   H         1 RES1   0.0000
@<TRIPOS>BOND
     1     1     2    1
     2     2     3    1
     3     1     4    1
     4     1     5    1
     5     1     6    1
     6     2     7    1
     7     3     8    1
     8     3     9    1
     9     3    10    1
@<TRIPOS>SUBSTRUCTURE
     1 RES1        1 GROUP             0 ****  ****    0  
