@<TRIPOS>MOLECULE
RDKit          3D
    19    20     1     0     0
SMALL
NO_CHARGES
****
Generated from the CSD

@<TRIPOS>ATOM
     1 C1       0.0000   0.0000   0.0000   C.3       1 RES1   0.0000
     2 C2      -1.0690  -0.9752   0.5254   C.3       1 RES1   0.0000
     3 C3      -2.0817  -1.0238  -0.6311   C.3       1 RES1   0.0000
     4 C4      -1.4601  -0.0702  -1.6674   C.3       1 RES1   0.0000
     5 C5       0.0167  -0.3246  -1.4755   C.3       1 RES1   0.0000
     6 C6      -1.6007   1.3739  -1.1532   C.3       1 RES1   0.0000
     7 C7      -0.5880   1.4226   0.0033   C.3       1 RES1   0.0000
     8 H8       0.9847  -0.0872   0.5069   H         1 RES1   0.0000
     9 H9      -1.5359  -0.6167   1.4687   H         1 RES1   0.0000
    10 H10     -0.6231  -1.9799   0.6961   H         1 RES1   0.0000
    11 H11     -3.0929  -0.6914  -0.3093   H         1 RES1   0.0000
    12 H12     -2.1498  -2.0532  -1.0473   H         1 RES1   0.0000
    13 H13     -1.8278  -0.2222  -2.7046   H         1 RES1   0.0000
    14 H14      0.3085  -1.3797  -1.6867   H         1 RES1   0.0000
    15 H15      0.6592   0.3683  -2.0672   H         1 RES1   0.0000
    16 H16     -1.3174   2.0960  -1.9505   H         1 RES1   0.0000
    17 H17     -2.6337   1.5971  -0.8075   H         1 RES1   0.0000
    18 H18     -1.0768   1.6718   0.9705   H         1 RES1   0.0000
    19 H19      0.2093   2.1692  -0.2072   H         1 RES1   0.0000
@<TRIPOS>BOND
     1     1     2    1
     2     2     3    1
     3     3     4    1
     4     4     5    1
     5     4     6    1
     6     6     7    1
     7     7     1    1
     8     5     1    1
     9     1     8    1
    10     2     9    1
    11     2    10    1
    12     3    11    1
    13     3    12    1
    14     4    13    1
    15     5    14    1
    16     5    15    1
    17     6    16    1
    18     6    17    1
    19     7    18    1
    20     7    19    1
@<TRIPOS>SUBSTRUCTURE
     1 RES1        1 GROUP             0 ****  ****    0  
