@<TRIPOS>MOLECULE
RDKit          3D
     9     9     1     0     0
SMALL
NO_CHARGES
****
Generated from the CSD

@<TRIPOS>ATOM
     1 C1       0.0000   0.0000   0.0000   C.3       1 RES1   0.0000
     2 C2      -0.6268  -0.7776   1.1417   C.3       1 RES1   0.0000
     3 C3       0.5217  -1.3796   0.3545   C.3       1 RES1   0.0000
     4 H4       0.6575   0.8356   0.3206   H         1 RES1   0.0000
     5 H5      -0.6153   0.0344  -0.9240   H         1 RES1   0.0000
     6 H6      -0.3484  -0.4124   2.1530   H         1 RES1   0.0000
     7 H7      -1.6212  -1.2138   0.9084   H         1 RES1   0.0000
     8 H8       0.2222  -2.1798  -0.3550   H         1 RES1   0.0000
     9 H9       1.4950  -1.3784   0.8895   H         1 RES1   0.0000
@<TRIPOS>BOND
     1     1     2    1
     2     2     3    1
     3     3     1    1
     4     1     4    1
     5     1     5    1
     6     2     6    1
     7     2     7    1
     8     3     8    1
     9     3     9    1
@<TRIPOS>SUBSTRUCTURE
     1 RES1        1 GROUP             0 ****  ****    0  
