@<TRIPOS>MOLECULE
RDKit          3D
    14    13     1     0     0
SMALL
USER_CHARGES
****
Generated from the CSD

@<TRIPOS>ATOM
     1 C1       0.9539   1.1165  -0.0998   C.3       1 RES1   0.0000
     2 N2       0.0000   0.0000   0.0000   N.4       1 RES1   1.0000
     3 C3      -1.3311   0.4959   0.3855   C.3       1 RES1   0.0000
     4 C4       0.4772  -0.9966   0.9724   C.3       1 RES1   0.0000
     5 H5       1.0661   1.6368   0.8777   H         1 RES1   0.0000
     6 H6       1.9516   0.7463  -0.4235   H         1 RES1   0.0000
     7 H7       0.6101   1.8534  -0.8588   H         1 RES1   0.0000
     8 H8      -0.0745  -0.4593  -0.9386   H         1 RES1   0.0000
     9 H9      -1.7063   1.2242  -0.3669   H         1 RES1   0.0000
    10 H10     -1.3010   0.9939   1.3805   H         1 RES1   0.0000
    11 H11     -2.0599  -0.3433   0.4285   H         1 RES1   0.0000
    12 H12      0.5723  -0.5521   1.9885   H         1 RES1   0.0000
    13 H13     -0.2267  -1.8563   1.0235   H         1 RES1   0.0000
    14 H14      1.4683  -1.3959   0.6635   H         1 RES1   0.0000
@<TRIPOS>BOND
     1     1     2    1
     2     2     3    1
     3     2     4    1
     4     1     5    1
     5     1     6    1
     6     1     7    1
     7     2     8    1
     8     3     9    1
     9     3    10    1
    10     3    11    1
    11     4    12    1
    12     4    13    1
    13     4    14    1
@<TRIPOS>SUBSTRUCTURE
     1 RES1        1 GROUP             0 ****  ****    0  
