@<TRIPOS>MOLECULE
RDKit          3D
    13    13     1     0     0
SMALL
NO_CHARGES
****
Generated from the CSD

@<TRIPOS>ATOM
     1 N1       0.0000   0.0000   0.0000   N.pl3     1 RES1   0.0000
     2 C2       0.7466   1.1314  -0.4567   C.2       1 RES1   0.0000
     3 C3       0.1216   2.1880  -0.9798   C.2       1 RES1   0.0000
     4 C4      -1.3804   2.2443  -1.1150   C.3       1 RES1   0.0000
     5 C5      -2.0896   1.0118  -0.6098   C.2       1 RES1   0.0000
     6 C6      -1.4272  -0.0249  -0.0930   C.2       1 RES1   0.0000
     7 H7       0.5038  -0.8190   0.4069   H         1 RES1   0.0000
     8 H8       1.8264   1.1290  -0.3767   H         1 RES1   0.0000
     9 H9       0.7061   3.0338  -1.3193   H         1 RES1   0.0000
    10 H10     -1.6345   2.3855  -2.1863   H         1 RES1   0.0000
    11 H11     -1.7540   3.1244  -0.5511   H         1 RES1   0.0000
    12 H12     -3.1699   0.9720  -0.6708   H         1 RES1   0.0000
    13 H13     -1.9722  -0.8917   0.2588   H         1 RES1   0.0000
@<TRIPOS>BOND
     1     1     2    1
     2     2     3    2
     3     3     4    1
     4     4     5    1
     5     5     6    2
     6     6     1    1
     7     1     7    1
     8     2     8    1
     9     3     9    1
    10     4    10    1
    11     4    11    1
    12     5    12    1
    13     6    13    1
@<TRIPOS>SUBSTRUCTURE
     1 RES1        1 GROUP             0 ****  ****    0  
