@<TRIPOS>MOLECULE
RDKit          3D
    11    11     1     0     0
SMALL
NO_CHARGES
****
Generated from the CSD

@<TRIPOS>ATOM
     1 C1       0.0000   0.0000   0.0000   C.2       1 RES1   0.0000
     2 C2       0.2066   1.0518  -0.7747   C.2       1 RES1   0.0000
     3 C3       1.6340   1.2149  -0.9754   C.2       1 RES1   0.0000
     4 C4       2.2712   0.2596  -0.3195   C.2       1 RES1   0.0000
     5 C5       1.2987  -0.6301   0.3818   C.3       1 RES1   0.0000
     6 H6      -0.9770  -0.3477   0.3085   H         1 RES1   0.0000
     7 H7      -0.5694   1.6827  -1.1872   H         1 RES1   0.0000
     8 H8       2.1086   1.9888  -1.5639   H         1 RES1   0.0000
     9 H9       3.3471   0.1466  -0.2997   H         1 RES1   0.0000
    10 H10      1.3632  -1.6691  -0.0041   H         1 RES1   0.0000
    11 H11      1.4490  -0.5919   1.4813   H         1 RES1   0.0000
@<TRIPOS>BOND
     1     1     2    2
     2     2     3    1
     3     3     4    2
     4     4     5    1
     5     5     1    1
     6     1     6    1
     7     2     7    1
     8     3     8    1
     9     4     9    1
    10     5    10    1
    11     5    11    1
@<TRIPOS>SUBSTRUCTURE
     1 RES1        1 GROUP             0 ****  ****    0  
