@<TRIPOS>MOLECULE
RDKit          3D
    13    14     1     0     0
SMALL
NO_CHARGES
****
Generated from the CSD

@<TRIPOS>ATOM
     1 C1       0.0000   0.0000   0.0000   C.3       1 RES1   0.0000
     2 C2       0.5366  -0.1176   1.4330   C.3       1 RES1   0.0000
     3 C3      -1.3077   0.5855   0.5502   C.3       1 RES1   0.0000
     4 C4      -0.1254   1.2565   1.2624   C.3       1 RES1   0.0000
     5 C5       0.5830   1.4168  -0.0897   C.3       1 RES1   0.0000
     6 H6       0.0775  -0.7816  -0.7853   H         1 RES1   0.0000
     7 H7       0.0064  -0.8400   2.0993   H         1 RES1   0.0000
     8 H8       1.6477  -0.1179   1.5443   H         1 RES1   0.0000
     9 H9      -1.9312  -0.1014   1.1718   H         1 RES1   0.0000
    10 H10     -1.8909   1.2312  -0.1498   H         1 RES1   0.0000
    11 H11     -0.2036   2.0379   2.0478   H         1 RES1   0.0000
    12 H12      0.0955   2.1039  -0.8226   H         1 RES1   0.0000
    13 H13      1.6966   1.4937  -0.0559   H         1 RES1   0.0000
@<TRIPOS>BOND
     1     1     2    1
     2     1     3    1
     3     3     4    1
     4     4     5    1
     5     5     1    1
     6     4     2    1
     7     1     6    1
     8     2     7    1
     9     2     8    1
    10     3     9    1
    11     3    10    1
    12     4    11    1
    13     5    12    1
    14     5    13    1
@<TRIPOS>SUBSTRUCTURE
     1 RES1        1 GROUP             0 ****  ****    0  
