@<TRIPOS>MOLECULE
RDKit          3D
    14    15     1     0     0
SMALL
NO_CHARGES
****
Generated from the CSD

@<TRIPOS>ATOM
     1 C1      -0.8770   0.1724   1.0755   C.3       1 RES1   0.0000
     2 C2      -0.2833  -0.8071   2.0859   C.3       1 RES1   0.0000
     3 C3       1.1859  -0.3967   1.8758   C.3       1 RES1   0.0000
     4 C4       0.9120   0.6721   0.8198   C.3       1 RES1   0.0000
     5 C5      -0.2030   1.4710   1.4550   C.3       1 RES1   0.0000
     6 O6       0.0000   0.0000   0.0000   O.3       1 RES1   0.0000
     7 H7      -1.9614   0.1607   0.8344   H         1 RES1   0.0000
     8 H8      -0.6385  -0.6135   3.1224   H         1 RES1   0.0000
     9 H9      -0.4671  -1.8613   1.7834   H         1 RES1   0.0000
    10 H10      1.7941  -1.2297   1.4602   H         1 RES1   0.0000
    11 H11      1.6486   0.0254   2.7956   H         1 RES1   0.0000
    12 H12      1.7451   1.1962   0.3045   H         1 RES1   0.0000
    13 H13     -0.1136   1.7077   2.5423   H         1 RES1   0.0000
    14 H14     -0.5317   2.3220   0.8184   H         1 RES1   0.0000
@<TRIPOS>BOND
     1     1     2    1
     2     2     3    1
     3     3     4    1
     4     4     5    1
     5     4     6    1
     6     6     1    1
     7     5     1    1
     8     1     7    1
     9     2     8    1
    10     2     9    1
    11     3    10    1
    12     3    11    1
    13     4    12    1
    14     5    13    1
    15     5    14    1
@<TRIPOS>SUBSTRUCTURE
     1 RES1        1 GROUP             0 ****  ****    0  
