@<TRIPOS>MOLECULE
RDKit          3D
    13    12     1     0     0
SMALL
NO_CHARGES
****
Generated from the CSD

@<TRIPOS>ATOM
     1 C1      -0.3483  -1.3939   0.3147   C.3       1 RES1   0.0000
     2 N2       0.0000   0.0000   0.0000   N.3       1 RES1   0.0000
     3 C3      -1.1248   0.6566  -0.6833   C.3       1 RES1   0.0000
     4 C4       1.1972   0.0379  -0.8534   C.3       1 RES1   0.0000
     5 H5      -0.5708  -1.9752  -0.6084   H         1 RES1   0.0000
     6 H6      -1.2353  -1.4242   0.9836   H         1 RES1   0.0000
     7 H7       0.4889  -1.8836   0.8572   H         1 RES1   0.0000
     8 H8      -1.3735   0.1446  -1.6400   H         1 RES1   0.0000
     9 H9      -2.0228   0.6553  -0.0284   H         1 RES1   0.0000
    10 H10     -0.8751   1.7185  -0.8958   H         1 RES1   0.0000
    11 H11      1.4797   1.0911  -1.0685   H         1 RES1   0.0000
    12 H12      1.0269  -0.4950  -1.8159   H         1 RES1   0.0000
    13 H13      2.0563  -0.4316  -0.3274   H         1 RES1   0.0000
@<TRIPOS>BOND
     1     1     2    1
     2     2     3    1
     3     2     4    1
     4     1     5    1
     5     1     6    1
     6     1     7    1
     7     3     8    1
     8     3     9    1
     9     3    10    1
    10     4    11    1
    11     4    12    1
    12     4    13    1
@<TRIPOS>SUBSTRUCTURE
     1 RES1        1 GROUP             0 ****  ****    0  
