@<TRIPOS>MOLECULE
RDKit          3D
    14    13     1     0     0
SMALL
NO_CHARGES
****
Generated from the CSD

@<TRIPOS>ATOM
     1 C1       0.0000   0.0000   0.0000   C.3       1 RES1   0.0000
     2 C2       0.5237   1.4163   0.2612   C.3       1 RES1   0.0000
     3 C3       2.0307   1.4919  -0.0065   C.3       1 RES1   0.0000
     4 C4      -0.2287   2.4368  -0.5996   C.3       1 RES1   0.0000
     5 H5       0.1584  -0.2878  -1.0617   H         1 RES1   0.0000
     6 H6       0.5270  -0.7292   0.6519   H         1 RES1   0.0000
     7 H7      -1.0858  -0.0547   0.2285   H         1 RES1   0.0000
     8 H8       0.3460   1.6628   1.3313   H         1 RES1   0.0000
     9 H9       2.5717   0.7731   0.6453   H         1 RES1   0.0000
    10 H10      2.4084   2.5124   0.2174   H         1 RES1   0.0000
    11 H11      2.2537   1.2515  -1.0685   H         1 RES1   0.0000
    12 H12      0.1333   3.4638  -0.3798   H         1 RES1   0.0000
    13 H13     -0.0777   2.2264  -1.6804   H         1 RES1   0.0000
    14 H14     -1.3162   2.3989  -0.3752   H         1 RES1   0.0000
@<TRIPOS>BOND
     1     1     2    1
     2     2     3    1
     3     2     4    1
     4     1     5    1
     5     1     6    1
     6     1     7    1
     7     2     8    1
     8     3     9    1
     9     3    10    1
    10     3    11    1
    11     4    12    1
    12     4    13    1
    13     4    14    1
@<TRIPOS>SUBSTRUCTURE
     1 RES1        1 GROUP             0 ****  ****    0  
