@<TRIPOS>MOLECULE
RDKit          3D
    14    14     1     0     0
SMALL
USER_CHARGES
****
Generated from the CSD

@<TRIPOS>ATOM
     1 O1      -2.1991   0.3944   0.4752   O.co2     1 RES1   0.0000
     2 C2      -1.1768   0.7160  -0.1873   C.2       1 RES1   0.0000
     3 O3       0.0000   0.0000   0.0000   O.co2     1 RES1  -1.0000
     4 C4      -1.2265   1.8380  -1.1502   C.2       1 RES1   0.0000
     5 C5      -2.4157   2.5663  -1.3438   C.2       1 RES1   0.0000
     6 C6      -2.4556   3.6258  -2.2557   C.2       1 RES1   0.0000
     7 C7      -1.3131   3.9690  -2.9821   C.2       1 RES1   0.0000
     8 C8      -0.1278   3.2532  -2.7981   C.2       1 RES1   0.0000
     9 C9      -0.0821   2.1928  -1.8875   C.2       1 RES1   0.0000
    10 H10     -3.3135   2.3180  -0.7917   H         1 RES1   0.0000
    11 H11     -3.3735   4.1812  -2.3991   H         1 RES1   0.0000
    12 H12     -1.3461   4.7893  -3.6874   H         1 RES1   0.0000
    13 H13      0.7569   3.5202  -3.3617   H         1 RES1   0.0000
    14 H14      0.8478   1.6525  -1.7617   H         1 RES1   0.0000
@<TRIPOS>BOND
     1     1     2    2
     2     2     3    1
     3     2     4    1
     4     4     5    2
     5     5     6    1
     6     6     7    2
     7     7     8    1
     8     8     9    2
     9     9     4    1
    10     5    10    1
    11     6    11    1
    12     7    12    1
    13     8    13    1
    14     9    14    1
@<TRIPOS>SUBSTRUCTURE
     1 RES1        1 GROUP             0 ****  ****    0  
