@<TRIPOS>MOLECULE
RDKit          3D
    11    11     1     0     0
SMALL
NO_CHARGES
****
Generated from the CSD

@<TRIPOS>ATOM
     1 N1       0.0000   0.0000   0.0000   N.3       1 RES1   0.0000
     2 C2      -1.2741  -0.6024   0.3922   C.3       1 RES1   0.0000
     3 C3      -0.7051  -2.0058   0.4028   C.3       1 RES1   0.0000
     4 C4       0.5908  -1.3383  -0.0073   C.3       1 RES1   0.0000
     5 H5       0.3837   0.5270   0.8204   H         1 RES1   0.0000
     6 H6      -1.6131  -0.2670   1.3993   H         1 RES1   0.0000
     7 H7      -2.0413  -0.4606  -0.4002   H         1 RES1   0.0000
     8 H8      -0.6620  -2.4496   1.4211   H         1 RES1   0.0000
     9 H9      -1.1318  -2.6558  -0.3917   H         1 RES1   0.0000
    10 H10      1.3954  -1.4540   0.7549   H         1 RES1   0.0000
    11 H11      0.9112  -1.6256  -1.0326   H         1 RES1   0.0000
@<TRIPOS>BOND
     1     1     2    1
     2     2     3    1
     3     3     4    1
     4     4     1    1
     5     1     5    1
     6     2     6    1
     7     2     7    1
     8     3     8    1
     9     3     9    1
    10     4    10    1
    11     4    11    1
@<TRIPOS>SUBSTRUCTURE
     1 RES1        1 GROUP             0 ****  ****    0  
