@<TRIPOS>MOLECULE
RDKit          3D
    11    10     1     0     0
SMALL
NO_CHARGES
****
Generated from the CSD

@<TRIPOS>ATOM
     1 C1       0.0000   0.0000   0.0000   C.3       1 RES1   0.0000
     2 C2      -0.8664   1.2291  -0.2575   C.3       1 RES1   0.0000
     3 C3      -2.3362   0.9422   0.0340   C.3       1 RES1   0.0000
     4 H4      -0.3174  -0.8398  -0.6542   H         1 RES1   0.0000
     5 H5       1.0613   0.2407  -0.2208   H         1 RES1   0.0000
     6 H6      -0.0797  -0.3122   1.0631   H         1 RES1   0.0000
     7 H7      -0.7568   1.5391  -1.3192   H         1 RES1   0.0000
     8 H8      -0.5203   2.0639   0.3893   H         1 RES1   0.0000
     9 H9      -2.9387   1.8540  -0.1626   H         1 RES1   0.0000
    10 H10     -2.4688   0.6513   1.0980   H         1 RES1   0.0000
    11 H11     -2.7066   0.1238  -0.6195   H         1 RES1   0.0000
@<TRIPOS>BOND
     1     1     2    1
     2     2     3    1
     3     1     4    1
     4     1     5    1
     5     1     6    1
     6     2     7    1
     7     2     8    1
     8     3     9    1
     9     3    10    1
    10     3    11    1
@<TRIPOS>SUBSTRUCTURE
     1 RES1        1 GROUP             0 ****  ****    0  
