@<TRIPOS>MOLECULE
RDKit          3D
    17    18     1     0     0
SMALL
NO_CHARGES
****
Generated from the CSD

@<TRIPOS>ATOM
     1 C1      -1.0609  -0.5665  -0.7100   C.3       1 RES1   0.0000
     2 C2      -0.7613  -0.1685  -2.1601   C.3       1 RES1   0.0000
     3 C3       0.7630  -0.2230  -2.1546   C.3       1 RES1   0.0000
     4 C4       1.0230  -0.6408  -0.7024   C.3       1 RES1   0.0000
     5 O5       0.0000   0.0000   0.0000   O.3       1 RES1   0.0000
     6 C6       0.6891  -2.1268  -0.5251   C.3       1 RES1   0.0000
     7 C7      -0.8353  -2.0723  -0.5306   C.3       1 RES1   0.0000
     8 H8      -2.0520  -0.2185  -0.3484   H         1 RES1   0.0000
     9 H9      -1.1167   0.8665  -2.3572   H         1 RES1   0.0000
    10 H10     -1.2059  -0.8711  -2.8986   H         1 RES1   0.0000
    11 H11      1.1617  -0.9556  -2.8900   H         1 RES1   0.0000
    12 H12      1.1927   0.7841  -2.3487   H         1 RES1   0.0000
    13 H13      2.0337  -0.3644  -0.3336   H         1 RES1   0.0000
    14 H14      1.0656  -2.4922   0.4553   H         1 RES1   0.0000
    15 H15      1.0918  -2.7583  -1.3472   H         1 RES1   0.0000
    16 H16     -1.2758  -2.6738  -1.3558   H         1 RES1   0.0000
    17 H17     -1.2439  -2.4097   0.4468   H         1 RES1   0.0000
@<TRIPOS>BOND
     1     1     2    1
     2     2     3    1
     3     3     4    1
     4     4     5    1
     5     4     6    1
     6     6     7    1
     7     7     1    1
     8     5     1    1
     9     1     8    1
    10     2     9    1
    11     2    10    1
    12     3    11    1
    13     3    12    1
    14     4    13    1
    15     6    14    1
    16     6    15    1
    17     7    16    1
    18     7    17    1
@<TRIPOS>SUBSTRUCTURE
     1 RES1        1 GROUP             0 ****  ****    0  
