@<TRIPOS>MOLECULE
RDKit          3D
     7     7     1     0     0
SMALL
NO_CHARGES
****
Generated from the CSD

@<TRIPOS>ATOM
     1 C1      -0.6768  -0.5286   1.1153   C.3       1 RES1   0.0000
     2 O2       0.0000   0.0000   0.0000   O.3       1 RES1   0.0000
     3 C3      -1.1552   0.6841   0.4229   C.3       1 RES1   0.0000
     4 H4      -1.1974  -1.4762   0.8637   H         1 RES1   0.0000
     5 H5      -0.1050  -0.3663   2.0527   H         1 RES1   0.0000
     6 H6      -1.9946   0.5444  -0.2899   H         1 RES1   0.0000
     7 H7      -0.9022   1.6542   0.8991   H         1 RES1   0.0000
@<TRIPOS>BOND
     1     1     2    1
     2     2     3    1
     3     3     1    1
     4     1     4    1
     5     1     5    1
     6     3     6    1
     7     3     7    1
@<TRIPOS>SUBSTRUCTURE
     1 RES1        1 GROUP             0 ****  ****    0  
