@<TRIPOS>MOLECULE
RDKit          3D
    10    10     1     0     0
SMALL
NO_CHARGES
****
Generated from the CSD

@<TRIPOS>ATOM
     1 N1       0.0000   0.0000   0.0000   N.pl3     1 RES1   0.0000
     2 C2      -0.2972  -0.9361   0.9187   C.2       1 RES1   0.0000
     3 C3      -1.6636  -1.0013   1.1000   C.2       1 RES1   0.0000
     4 C4      -2.2164  -0.0620   0.2524   C.2       1 RES1   0.0000
     5 C5      -1.1636   0.5359  -0.4095   C.2       1 RES1   0.0000
     6 H6       0.9543   0.2615  -0.3326   H         1 RES1   0.0000
     7 H7       0.4392  -1.5410   1.4313   H         1 RES1   0.0000
     8 H8      -2.1967  -1.6587   1.7735   H         1 RES1   0.0000
     9 H9      -3.2679   0.1613   0.1311   H         1 RES1   0.0000
    10 H10     -1.2448   1.3203  -1.1505   H         1 RES1   0.0000
@<TRIPOS>BOND
     1     1     2    1
     2     2     3    2
     3     3     4    1
     4     4     5    2
     5     5     1    1
     6     1     6    1
     7     2     7    1
     8     3     8    1
     9     4     9    1
    10     5    10    1
@<TRIPOS>SUBSTRUCTURE
     1 RES1        1 GROUP             0 ****  ****    0  
