@<TRIPOS>MOLECULE
RDKit          3D
     9     9     1     0     0
SMALL
NO_CHARGES
****
Generated from the CSD

@<TRIPOS>ATOM
     1 O1       0.0000   0.0000   0.0000   O.3       1 RES1   0.0000
     2 C2      -0.6756   0.9697  -0.5723   C.2       1 RES1   0.0000
     3 C3      -1.8884   1.1279   0.0649   C.2       1 RES1   0.0000
     4 C4      -1.9132   0.1869   1.0709   C.2       1 RES1   0.0000
     5 C5      -0.7142  -0.4890   0.9875   C.2       1 RES1   0.0000
     6 H6      -0.3209   1.5477  -1.4151   H         1 RES1   0.0000
     7 H7      -2.6622   1.8444  -0.1760   H         1 RES1   0.0000
     8 H8      -2.7106   0.0138   1.7812   H         1 RES1   0.0000
     9 H9      -0.3962  -1.2997   1.6293   H         1 RES1   0.0000
@<TRIPOS>BOND
     1     1     2    1
     2     2     3    2
     3     3     4    1
     4     4     5    2
     5     5     1    1
     6     2     6    1
     7     3     7    1
     8     4     8    1
     9     5     9    1
@<TRIPOS>SUBSTRUCTURE
     1 RES1        1 GROUP             0 ****  ****    0  
