@<TRIPOS>MOLECULE
RDKit          3D
    21    21     1     0     0
SMALL
NO_CHARGES
****
Generated from the CSD

@<TRIPOS>ATOM
     1 C1       0.0000   0.0000   0.0000   C.3       1 RES1   0.0000
     2 C2       1.4456  -0.1479  -0.4893   C.3       1 RES1   0.0000
     3 C3       1.7671  -1.6096  -0.8229   C.3       1 RES1   0.0000
     4 C4       1.7157   0.7560  -1.6775   C.2       1 RES1   0.0000
     5 C5       1.0097   0.5992  -2.8869   C.2       1 RES1   0.0000
     6 C6       1.2703   1.4405  -3.9727   C.2       1 RES1   0.0000
     7 C7       2.2348   2.4448  -3.8657   C.2       1 RES1   0.0000
     8 C8       2.9412   2.6100  -2.6723   C.2       1 RES1   0.0000
     9 C9       2.6848   1.7717  -1.5829   C.2       1 RES1   0.0000
    10 H10     -0.1509  -0.5964   0.9251   H         1 RES1   0.0000
    11 H11     -0.7215  -0.3516  -0.7676   H         1 RES1   0.0000
    12 H12     -0.2151   1.0645   0.2348   H         1 RES1   0.0000
    13 H13      2.1068   0.1453   0.3568   H         1 RES1   0.0000
    14 H14      1.0883  -2.0002  -1.6105   H         1 RES1   0.0000
    15 H15      1.6538  -2.2402   0.0846   H         1 RES1   0.0000
    16 H16      2.8166  -1.6970  -1.1771   H         1 RES1   0.0000
    17 H17      0.2581  -0.1724  -2.9915   H         1 RES1   0.0000
    18 H18      0.7235   1.3133  -4.8982   H         1 RES1   0.0000
    19 H19      2.4351   3.0949  -4.7076   H         1 RES1   0.0000
    20 H20      3.6886   3.3888  -2.5906   H         1 RES1   0.0000
    21 H21      3.2436   1.9167  -0.6668   H         1 RES1   0.0000
@<TRIPOS>BOND
     1     1     2    1
     2     2     3    1
     3     2     4    1
     4     4     5    2
     5     5     6    1
     6     6     7    2
     7     7     8    1
     8     8     9    2
     9     9     4    1
    10     1    10    1
    11     1    11    1
    12     1    12    1
    13     2    13    1
    14     3    14    1
    15     3    15    1
    16     3    16    1
    17     5    17    1
    18     6    18    1
    19     7    19    1
    20     8    20    1
    21     9    21    1
@<TRIPOS>SUBSTRUCTURE
     1 RES1        1 GROUP             0 ****  ****    0  
