@<TRIPOS>MOLECULE
RDKit          3D
    12    12     1     0     0
SMALL
NO_CHARGES
****
Generated from the CSD

@<TRIPOS>ATOM
     1 C1       0.0000   0.0000   0.0000   C.2       1 RES1   0.0000
     2 C2       1.3960   0.0843   0.0415   C.2       1 RES1   0.0000
     3 C3       2.0311   1.3037  -0.2173   C.2       1 RES1   0.0000
     4 C4       1.2704   2.4387  -0.5175   C.2       1 RES1   0.0000
     5 C5      -0.1256   2.3544  -0.5590   C.2       1 RES1   0.0000
     6 C6      -0.7607   1.1351  -0.3002   C.2       1 RES1   0.0000
     7 H7      -0.4913  -0.9434   0.2002   H         1 RES1   0.0000
     8 H8       1.9844  -0.7939   0.2738   H         1 RES1   0.0000
     9 H9       3.1110   1.3689  -0.1852   H         1 RES1   0.0000
    10 H10      1.7617   3.3821  -0.7177   H         1 RES1   0.0000
    11 H11     -0.7141   3.2326  -0.7913   H         1 RES1   0.0000
    12 H12     -1.8406   1.0699  -0.3323   H         1 RES1   0.0000
@<TRIPOS>BOND
     1     1     2    2
     2     2     3    1
     3     3     4    2
     4     4     5    1
     5     5     6    2
     6     6     1    1
     7     1     7    1
     8     2     8    1
     9     3     9    1
    10     4    10    1
    11     5    11    1
    12     6    12    1
@<TRIPOS>SUBSTRUCTURE
     1 RES1        1 GROUP             0 ****  ****    0  
