@<TRIPOS>MOLECULE
RDKit          3D
    12    13     1     0     0
SMALL
NO_CHARGES
****
Generated from the CSD

@<TRIPOS>ATOM
     1 C1      -0.6104  -0.9714  -0.9119   C.3       1 RES1   0.0000
     2 N2       0.0000   0.0000   0.0000   N.3       1 RES1   0.0000
     3 C3      -1.7361  -1.2465   0.0850   C.3       1 RES1   0.0000
     4 C4      -1.4427   0.2445  -0.0811   C.3       1 RES1   0.0000
     5 C5      -1.4779   0.0854  -1.6057   C.3       1 RES1   0.0000
     6 H6       0.0238  -1.7399  -1.4054   H         1 RES1   0.0000
     7 H7       0.5534   0.7301  -0.5143   H         1 RES1   0.0000
     8 H8      -2.7030  -1.6304  -0.3216   H         1 RES1   0.0000
     9 H9      -1.4023  -1.6813   1.0557   H         1 RES1   0.0000
    10 H10     -1.8976   1.0672   0.5126   H         1 RES1   0.0000
    11 H11     -0.9167   0.8596  -2.1764   H         1 RES1   0.0000
    12 H12     -2.4370  -0.2577  -2.0636   H         1 RES1   0.0000
@<TRIPOS>BOND
     1     1     2    1
     2     1     3    1
     3     3     4    1
     4     4     5    1
     5     5     1    1
     6     4     2    1
     7     1     6    1
     8     2     7    1
     9     3     8    1
    10     3     9    1
    11     4    10    1
    12     5    11    1
    13     5    12    1
@<TRIPOS>SUBSTRUCTURE
     1 RES1        1 GROUP             0 ****  ****    0  
