@<TRIPOS>MOLECULE
RDKit          3D
    12    12     1     0     0
SMALL
NO_CHARGES
****
Generated from the CSD

@<TRIPOS>ATOM
     1 C1       0.0000   0.0000   0.0000   C.3       1 RES1   0.0000
     2 C2       1.4993   0.1239   0.2265   C.3       1 RES1   0.0000
     3 C3       1.4548   1.5626  -0.2668   C.3       1 RES1   0.0000
     4 C4      -0.0445   1.4386  -0.4933   C.3       1 RES1   0.0000
     5 H5      -0.5648  -0.1447   0.9470   H         1 RES1   0.0000
     6 H6      -0.2526  -0.7330  -0.7972   H         1 RES1   0.0000
     7 H7       1.7768   0.0488   1.3007   H         1 RES1   0.0000
     8 H8       2.0890  -0.5395  -0.4435   H         1 RES1   0.0000
     9 H9       1.7075   2.2956   0.5305   H         1 RES1   0.0000
    10 H10      2.0196   1.7073  -1.2138   H         1 RES1   0.0000
    11 H11     -0.6341   2.1020   0.1766   H         1 RES1   0.0000
    12 H12     -0.3220   1.5136  -1.5675   H         1 RES1   0.0000
@<TRIPOS>BOND
     1     1     2    1
     2     2     3    1
     3     3     4    1
     4     4     1    1
     5     1     5    1
     6     1     6    1
     7     2     7    1
     8     2     8    1
     9     3     9    1
    10     3    10    1
    11     4    11    1
    12     4    12    1
@<TRIPOS>SUBSTRUCTURE
     1 RES1        1 GROUP             0 ****  ****    0  
