@<TRIPOS>MOLECULE
RDKit          3D
    12    12     1     0     0
SMALL
NO_CHARGES
****
Generated from the CSD

@<TRIPOS>ATOM
     1 O1       0.0000   0.0000   0.0000   O.3       1 RES1   0.0000
     2 C2      -1.1180   0.8209  -0.1802   C.2       1 RES1   0.0000
     3 C3      -0.9753   2.0904  -0.5660   C.2       1 RES1   0.0000
     4 C4       0.3839   2.6896  -0.8220   C.3       1 RES1   0.0000
     5 C5       1.5198   1.7240  -0.5998   C.2       1 RES1   0.0000
     6 C6       1.3015   0.4656  -0.2130   C.2       1 RES1   0.0000
     7 H7      -2.1068   0.4185  -0.0038   H         1 RES1   0.0000
     8 H8      -1.8544   2.7084  -0.6994   H         1 RES1   0.0000
     9 H9       0.5209   3.5618  -0.1490   H         1 RES1   0.0000
    10 H10      0.4222   3.0494  -1.8714   H         1 RES1   0.0000
    11 H11      2.5354   2.0636  -0.7590   H         1 RES1   0.0000
    12 H12      2.1372  -0.2050  -0.0614   H         1 RES1   0.0000
@<TRIPOS>BOND
     1     1     2    1
     2     2     3    2
     3     3     4    1
     4     4     5    1
     5     5     6    2
     6     6     1    1
     7     2     7    1
     8     3     8    1
     9     4     9    1
    10     4    10    1
    11     5    11    1
    12     6    12    1
@<TRIPOS>SUBSTRUCTURE
     1 RES1        1 GROUP             0 ****  ****    0  
