@<TRIPOS>MOLECULE
RDKit          3D
    11    12     1     0     0
SMALL
NO_CHARGES
****
Generated from the CSD

@<TRIPOS>ATOM
     1 C1      -1.3672   0.2923   0.0805   C.3       1 RES1   0.0000
     2 O2       0.0000   0.0000   0.0000   O.3       1 RES1   0.0000
     3 C3      -1.4016   0.6296  -1.4074   C.3       1 RES1   0.0000
     4 C4      -0.5951  -0.6290  -1.1006   C.3       1 RES1   0.0000
     5 C5      -1.7147  -1.1645  -0.2126   C.3       1 RES1   0.0000
     6 H6      -1.7490   0.9163   0.9177   H         1 RES1   0.0000
     7 H7      -2.3742   0.4956  -1.9387   H         1 RES1   0.0000
     8 H8      -0.7862   1.5128  -1.6943   H         1 RES1   0.0000
     9 H9       0.0336  -1.2108  -1.8095   H         1 RES1   0.0000
    10 H10     -2.6991  -1.3664  -0.6987   H         1 RES1   0.0000
    11 H11     -1.3792  -1.8847   0.5683   H         1 RES1   0.0000
@<TRIPOS>BOND
     1     1     2    1
     2     1     3    1
     3     3     4    1
     4     4     5    1
     5     5     1    1
     6     4     2    1
     7     1     6    1
     8     3     7    1
     9     3     8    1
    10     4     9    1
    11     5    10    1
    12     5    11    1
@<TRIPOS>SUBSTRUCTURE
     1 RES1        1 GROUP             0 ****  ****    0  
