@<TRIPOS>MOLECULE
RDKit          3D
    15    15     1     0     0
SMALL
NO_CHARGES
****
Generated from the CSD

@<TRIPOS>ATOM
     1 C1       0.0000   0.0000   0.0000   C.3       1 RES1   0.0000
     2 C2       0.2692  -1.0999   0.9839   C.2       1 RES1   0.0000
     3 C3       1.5707  -1.5943   1.1734   C.2       1 RES1   0.0000
     4 C4       1.8057  -2.6203   2.0945   C.2       1 RES1   0.0000
     5 C5       0.7460  -3.1580   2.8304   C.2       1 RES1   0.0000
     6 C6      -0.5510  -2.6706   2.6465   C.2       1 RES1   0.0000
     7 C7      -0.7903  -1.6447   1.7264   C.2       1 RES1   0.0000
     8 H8      -0.7162  -0.3557  -0.7703   H         1 RES1   0.0000
     9 H9       0.9309   0.3278  -0.5097   H         1 RES1   0.0000
    10 H10     -0.4385   0.8731   0.5275   H         1 RES1   0.0000
    11 H11      2.4021  -1.1880   0.6108   H         1 RES1   0.0000
    12 H12      2.8096  -2.9986   2.2378   H         1 RES1   0.0000
    13 H13      0.9297  -3.9518   3.5427   H         1 RES1   0.0000
    14 H14     -1.3710  -3.0875   3.2167   H         1 RES1   0.0000
    15 H15     -1.7994  -1.2748   1.5922   H         1 RES1   0.0000
@<TRIPOS>BOND
     1     1     2    1
     2     2     3    2
     3     3     4    1
     4     4     5    2
     5     5     6    1
     6     6     7    2
     7     7     2    1
     8     1     8    1
     9     1     9    1
    10     1    10    1
    11     3    11    1
    12     4    12    1
    13     5    13    1
    14     6    14    1
    15     7    15    1
@<TRIPOS>SUBSTRUCTURE
     1 RES1        1 GROUP             0 ****  ****    0  
