@<TRIPOS>MOLECULE
RDKit          3D
    22    23     1     0     0
SMALL
NO_CHARGES
****
Generated from the CSD

@<TRIPOS>ATOM
     1 C1       0.0000   0.0000   0.0000   C.3       1 RES1   0.0000
     2 C2       0.9947   0.4082  -1.1124   C.3       1 RES1   0.0000
     3 C3       0.8173   1.9068  -1.4768   C.3       1 RES1   0.0000
     4 C4       0.2569   0.8923   1.2375   C.3       1 RES1   0.0000
     5 C5       0.0796   2.3909   0.8732   C.3       1 RES1   0.0000
     6 C6      -0.3011   2.5441  -0.6185   C.3       1 RES1   0.0000
     7 C7      -1.6146   1.7664  -0.8707   C.3       1 RES1   0.0000
     8 C8      -1.4372   0.2677  -0.5062   C.3       1 RES1   0.0000
     9 H9       0.1270  -1.0730   0.2610   H         1 RES1   0.0000
    10 H10      2.0358   0.2238  -0.7681   H         1 RES1   0.0000
    11 H11      0.8263  -0.2220  -2.0131   H         1 RES1   0.0000
    12 H12      1.7722   2.4517  -1.3099   H         1 RES1   0.0000
    13 H13      0.5627   2.0059  -2.5548   H         1 RES1   0.0000
    14 H14     -0.4493   0.6151   2.0506   H         1 RES1   0.0000
    15 H15      1.2869   0.7153   1.6178   H         1 RES1   0.0000
    16 H16     -0.7130   2.8430   1.5089   H         1 RES1   0.0000
    17 H17      1.0232   2.9433   1.0761   H         1 RES1   0.0000
    18 H18     -0.4281   3.6172  -0.8795   H         1 RES1   0.0000
    19 H19     -2.4331   2.2090  -0.2617   H         1 RES1   0.0000
    20 H20     -1.9064   1.8633  -1.9393   H         1 RES1   0.0000
    21 H21     -2.1694  -0.0190   0.2801   H         1 RES1   0.0000
    22 H22     -1.6427  -0.3646  -1.3976   H         1 RES1   0.0000
@<TRIPOS>BOND
     1     1     2    1
     2     2     3    1
     3     1     4    1
     4     4     5    1
     5     5     6    1
     6     6     7    1
     7     7     8    1
     8     8     1    1
     9     6     3    1
    10     1     9    1
    11     2    10    1
    12     2    11    1
    13     3    12    1
    14     3    13    1
    15     4    14    1
    16     4    15    1
    17     5    16    1
    18     5    17    1
    19     6    18    1
    20     7    19    1
    21     7    20    1
    22     8    21    1
    23     8    22    1
@<TRIPOS>SUBSTRUCTURE
     1 RES1        1 GROUP             0 ****  ****    0  
