
@<TRIPOS>MOLECULE
01
    8    8     1     0     0
SMALL
USER_CHARGES
****
Generated from the CSD

@<TRIPOS>ATOM
     1 C1       1.5501   2.7790   5.1945   C.1       1 RES1   0.0000
     2 C2       0.9627   2.7784   6.5012   C.ar      1 RES1   0.0000
     3 C3       0.7186   1.5785   7.1690   C.ar      1 RES1   0.0000
     4 C4       0.1439   1.5841   8.4267   C.ar      1 RES1   0.0000
     5 C5      -0.1888   2.7990   9.0242   C.ar      1 RES1   0.0000
     6 C6       0.0505   4.0030   8.3570   C.ar      1 RES1   0.0000
     7 C7       0.6290   3.9952   7.1114   C.ar      1 RES1   0.0000
	 8 N1       2.0066   2.7922   4.1373   N.1       1 RES1   1.0000

@<TRIPOS>BOND
     1     1     2    1
     2     2     3   ar
     3     3     4   ar
     4     4     5   ar
     5     5     6   ar
     6     6     7   ar
     7     7     2   ar
     8     8     1    3

@<TRIPOS>SUBSTRUCTURE
     1 RES1        1 GROUP             0 ****  ****    0  
