@<TRIPOS>MOLECULE
RDKit          3D
    18    19     1     0     0
SMALL
NO_CHARGES
****
Generated from the CSD

@<TRIPOS>ATOM
     1 C1      -1.1615  -0.5422  -0.6822   C.3       1 RES1   0.0000
     2 C2      -1.2387  -1.9671  -0.1144   C.3       1 RES1   0.0000
     3 C3       0.2496  -2.3139   0.0290   C.3       1 RES1   0.0000
     4 C4       0.9087  -1.0246  -0.4826   C.3       1 RES1   0.0000
     5 N5       0.0000   0.0000   0.0000   N.3       1 RES1   0.0000
     6 C6       0.7581  -0.9689  -2.0144   C.3       1 RES1   0.0000
     7 C7      -0.7269  -0.6229  -2.1576   C.3       1 RES1   0.0000
     8 H8      -2.0819   0.0574  -0.5143   H         1 RES1   0.0000
     9 H9      -1.7697  -2.6706  -0.7924   H         1 RES1   0.0000
    10 H10     -1.7354  -1.9582   0.8804   H         1 RES1   0.0000
    11 H11      0.5319  -3.2068  -0.5707   H         1 RES1   0.0000
    12 H12      0.5105  -2.4814   1.0969   H         1 RES1   0.0000
    13 H13      1.9515  -0.8824  -0.1256   H         1 RES1   0.0000
    14 H14      0.2566   0.9402  -0.3895   H         1 RES1   0.0000
    15 H15      1.0129  -1.9338  -2.5049   H         1 RES1   0.0000
    16 H16      1.3917  -0.1572  -2.4343   H         1 RES1   0.0000
    17 H17     -1.2850  -1.3985  -2.7264   H         1 RES1   0.0000
    18 H18     -0.8529   0.3657  -2.6506   H         1 RES1   0.0000
@<TRIPOS>BOND
     1     1     2    1
     2     2     3    1
     3     3     4    1
     4     4     5    1
     5     4     6    1
     6     6     7    1
     7     7     1    1
     8     5     1    1
     9     1     8    1
    10     2     9    1
    11     2    10    1
    12     3    11    1
    13     3    12    1
    14     4    13    1
    15     5    14    1
    16     6    15    1
    17     6    16    1
    18     7    17    1
    19     7    18    1
@<TRIPOS>SUBSTRUCTURE
     1 RES1        1 GROUP             0 ****  ****    0  
