@<TRIPOS>MOLECULE
RDKit          3D
    15    16     1     0     0
SMALL
NO_CHARGES
****
Generated from the CSD

@<TRIPOS>ATOM
     1 C1      -0.4165   0.0319   1.3958   C.3       1 RES1   0.0000
     2 C2       0.9348  -0.0915   2.0999   C.3       1 RES1   0.0000
     3 C3       1.6760   0.9613   1.2487   C.3       1 RES1   0.0000
     4 C4       0.4939   1.3252   0.3500   C.3       1 RES1   0.0000
     5 C5      -0.6068   1.5389   1.3750   C.3       1 RES1   0.0000
     6 N6       0.0000   0.0000   0.0000   N.3       1 RES1   0.0000
     7 H7      -1.2621  -0.6324   1.6773   H         1 RES1   0.0000
     8 H8       1.3680  -1.1079   1.9730   H         1 RES1   0.0000
     9 H9       0.8791   0.1906   3.1749   H         1 RES1   0.0000
    10 H10      2.5079   0.5113   0.6635   H         1 RES1   0.0000
    11 H11      2.0304   1.8262   1.8524   H         1 RES1   0.0000
    12 H12      0.6224   2.0447  -0.4874   H         1 RES1   0.0000
    13 H13     -1.5710   1.8416   0.9099   H         1 RES1   0.0000
    14 H14     -0.3484   2.1062   2.3015   H         1 RES1   0.0000
    15 H15     -0.8419   0.0909  -0.6206   H         1 RES1   0.0000
@<TRIPOS>BOND
     1     1     2    1
     2     2     3    1
     3     3     4    1
     4     4     5    1
     5     4     6    1
     6     6     1    1
     7     5     1    1
     8     1     7    1
     9     2     8    1
    10     2     9    1
    11     3    10    1
    12     3    11    1
    13     4    12    1
    14     5    13    1
    15     5    14    1
    16     6    15    1
@<TRIPOS>SUBSTRUCTURE
     1 RES1        1 GROUP             0 ****  ****    0  
