@<TRIPOS>MOLECULE
RDKit          3D
    10    10     1     0     0
SMALL
NO_CHARGES
****
Generated from the CSD

@<TRIPOS>ATOM
     1 O1       0.0000   0.0000   0.0000   O.3       1 RES1   0.0000
     2 C2      -1.0817  -0.7777  -0.4523   C.3       1 RES1   0.0000
     3 C3      -0.7585  -1.9094   0.4883   C.3       1 RES1   0.0000
     4 C4       0.3726  -1.0072   0.9087   C.3       1 RES1   0.0000
     5 H5      -2.0535  -0.2872  -0.2234   H         1 RES1   0.0000
     6 H6      -0.9588  -1.0544  -1.5226   H         1 RES1   0.0000
     7 H7      -1.5237  -2.0511   1.2821   H         1 RES1   0.0000
     8 H8      -0.4145  -2.8282  -0.0341   H         1 RES1   0.0000
     9 H9       1.3743  -1.4226   0.6609   H         1 RES1   0.0000
    10 H10      0.2795  -0.6555   1.9600   H         1 RES1   0.0000
@<TRIPOS>BOND
     1     1     2    1
     2     2     3    1
     3     3     4    1
     4     4     1    1
     5     2     5    1
     6     2     6    1
     7     3     7    1
     8     3     8    1
     9     4     9    1
    10     4    10    1
@<TRIPOS>SUBSTRUCTURE
     1 RES1        1 GROUP             0 ****  ****    0  
