@<TRIPOS>MOLECULE
RDKit          3D
    13    13     1     0     0
SMALL
NO_CHARGES
****
Generated from the CSD

@<TRIPOS>ATOM
     1 O1       0.0000   0.0000   0.0000   O.2       1 RES1   0.0000
     2 C2      -0.4106  -1.0177  -0.6178   C.2       1 RES1   0.0000
     3 C3       0.3117  -1.4893  -1.8479   C.2       1 RES1   0.0000
     4 C4      -1.3663  -3.3794  -1.9889   C.3       1 RES1   0.0000
     5 C5      -2.0207  -2.8550  -0.7363   C.2       1 RES1   0.0000
     6 C6      -1.5633  -1.7730  -0.0980   C.2       1 RES1   0.0000
     7 H7      -2.8619  -3.3965  -0.3220   H         1 RES1   0.0000
     8 H8      -2.0534  -1.4414   0.8091   H         1 RES1   0.0000
     9 C9      -0.1161  -2.5534  -2.4954   C.2       1 RES1   0.0000
    10 H10      1.1890  -0.9513  -2.2041   H         1 RES1   0.0000
    11 H11      0.4020  -2.8713  -3.3990   H         1 RES1   0.0000
    12 H12     -2.1121  -3.3815  -2.7825   H         1 RES1   0.0000
    13 H13     -1.0392  -4.4000  -1.7956   H         1 RES1   0.0000
@<TRIPOS>BOND
     1     1     2    2
     2     2     3    1
     3     4     5    1
     4     5     6    2
     5     6     2    1
     6     5     7    1
     7     6     8    1
     8     3     9    2
     9     4     9    1
    10     3    10    1
    11     9    11    1
    12     4    12    1
    13     4    13    1
@<TRIPOS>SUBSTRUCTURE
     1 RES1        1 GROUP             0 ****  ****    0  
